output/CTMT/Cargas_BT_SA11_CTMT.dss
New "Load.BT_6425_M1" bus1="UC15168.1.4" phases=1 conn=delta model=2 kv=0.22 kw = 1029.316675920198 pf=0.92 status=variable vmaxpu=1.5 vminpu=0.93 daily="RES_2_SA" 
New "Load.BT_6425_M2" bus1="UC15168.1.4" phases=1 conn=delta model=3 kv=0.22 kw = 1029.316675920198 pf=0.92 status=variable vmaxpu=1.5 vminpu=0.93 daily="RES_2_SA"
 
New "Load.BT_7259_M1" bus1="UC15169.1.2.3.4" phases=3 conn=delta model=2 kv=0.38 kw = 730.4828022659469 pf=0.92 status=variable vmaxpu=1.5 vminpu=0.93 daily="RES_2_SA" 
New "Load.BT_7259_M2" bus1="UC15169.1.2.3.4" phases=3 conn=delta model=3 kv=0.38 kw = 730.4828022659469 pf=0.92 status=variable vmaxpu=1.5 vminpu=0.93 daily="RES_2_SA"
 
New "Load.BT_352_M1" bus1="UC15174.1.4" phases=1 conn=delta model=2 kv=0.22 kw = 1187.0989421743498 pf=0.92 status=variable vmaxpu=1.5 vminpu=0.93 daily="RES_10_SA" 
New "Load.BT_352_M2" bus1="UC15174.1.4" phases=1 conn=delta model=3 kv=0.22 kw = 1187.0989421743498 pf=0.92 status=variable vmaxpu=1.5 vminpu=0.93 daily="RES_10_SA"
 
New "Load.BT_2941_M1" bus1="UC13788.3.4" phases=1 conn=delta model=2 kv=0.22 kw = 444.9304341074405 pf=0.92 status=variable vmaxpu=1.5 vminpu=0.93 daily="RES_2_SA" 
New "Load.BT_2941_M2" bus1="UC13788.3.4" phases=1 conn=delta model=3 kv=0.22 kw = 444.9304341074405 pf=0.92 status=variable vmaxpu=1.5 vminpu=0.93 daily="RES_2_SA"
 
New "Load.BT_714_M1" bus1="UC15175.1.2.3.4" phases=3 conn=delta model=2 kv=0.38 kw = 1135.568719886154 pf=0.92 status=variable vmaxpu=1.5 vminpu=0.93 daily="RES_2_SA" 
New "Load.BT_714_M2" bus1="UC15175.1.2.3.4" phases=3 conn=delta model=3 kv=0.38 kw = 1135.568719886154 pf=0.92 status=variable vmaxpu=1.5 vminpu=0.93 daily="RES_2_SA"
 
New "Load.BT_7479_M1" bus1="ET1_159.2.3.4" phases=2 conn=delta model=2 kv=0.38 kw = 787.4709677649341 pf=0.92 status=variable vmaxpu=1.5 vminpu=0.93 daily="RES_3_SA" 
New "Load.BT_7479_M2" bus1="ET1_159.2.3.4" phases=2 conn=delta model=3 kv=0.38 kw = 787.4709677649341 pf=0.92 status=variable vmaxpu=1.5 vminpu=0.93 daily="RES_3_SA"
 
New "Load.BT_7575_M1" bus1="UC15178.3.4" phases=1 conn=delta model=2 kv=0.22 kw = 939.4700474267526 pf=0.92 status=variable vmaxpu=1.5 vminpu=0.93 daily="RES_1_SA" 
New "Load.BT_7575_M2" bus1="UC15178.3.4" phases=1 conn=delta model=3 kv=0.22 kw = 939.4700474267526 pf=0.92 status=variable vmaxpu=1.5 vminpu=0.93 daily="RES_1_SA"
 
New "Load.BT_6438_M1" bus1="UC15180.1.4" phases=1 conn=delta model=2 kv=0.22 kw = 478.13419784680167 pf=0.92 status=variable vmaxpu=1.5 vminpu=0.93 daily="RES_2_SA" 
New "Load.BT_6438_M2" bus1="UC15180.1.4" phases=1 conn=delta model=3 kv=0.22 kw = 478.13419784680167 pf=0.92 status=variable vmaxpu=1.5 vminpu=0.93 daily="RES_2_SA"
 
New "Load.BT_387_M1" bus1="UC15581.1.2.3.4" phases=3 conn=delta model=2 kv=0.38 kw = 567.2776639823222 pf=0.92 status=variable vmaxpu=1.5 vminpu=0.93 daily="RES_3_SA" 
New "Load.BT_387_M2" bus1="UC15581.1.2.3.4" phases=3 conn=delta model=3 kv=0.38 kw = 567.2776639823222 pf=0.92 status=variable vmaxpu=1.5 vminpu=0.93 daily="RES_3_SA"
 
New "Load.BT_7928_M1" bus1="UC15838.3.4" phases=1 conn=delta model=2 kv=0.22 kw = 0.0 pf=0.92 status=variable vmaxpu=1.5 vminpu=0.93 daily="RES_7_SA" 
New "Load.BT_7928_M2" bus1="UC15838.3.4" phases=1 conn=delta model=3 kv=0.22 kw = 0.0 pf=0.92 status=variable vmaxpu=1.5 vminpu=0.93 daily="RES_7_SA"
 
New "Load.BT_8263_M1" bus1="UC14653.1.2.3.4" phases=3 conn=delta model=2 kv=0.38 kw = 33.58880905158487 pf=0.92 status=variable vmaxpu=1.5 vminpu=0.93 daily="RES_3_SA" 
New "Load.BT_8263_M2" bus1="UC14653.1.2.3.4" phases=3 conn=delta model=3 kv=0.38 kw = 33.58880905158487 pf=0.92 status=variable vmaxpu=1.5 vminpu=0.93 daily="RES_3_SA"
 
New "Load.BT_7436_M1" bus1="UC10919.3.4" phases=1 conn=delta model=2 kv=0.22 kw = 821.0597768165189 pf=0.92 status=variable vmaxpu=1.5 vminpu=0.93 daily="RES_3_SA" 
New "Load.BT_7436_M2" bus1="UC10919.3.4" phases=1 conn=delta model=3 kv=0.22 kw = 821.0597768165189 pf=0.92 status=variable vmaxpu=1.5 vminpu=0.93 daily="RES_3_SA"
 
New "Load.BT_2214_M1" bus1="UC16152.1.4" phases=1 conn=delta model=2 kv=0.22 kw = 0.0 pf=0.92 status=variable vmaxpu=1.5 vminpu=0.93 daily="RES_7_SA" 
New "Load.BT_2214_M2" bus1="UC16152.1.4" phases=1 conn=delta model=3 kv=0.22 kw = 0.0 pf=0.92 status=variable vmaxpu=1.5 vminpu=0.93 daily="RES_7_SA"
 
New "Load.BT_2922_M1" bus1="UC2530.1.4" phases=1 conn=delta model=2 kv=0.22 kw = 309.7634612535049 pf=0.92 status=variable vmaxpu=1.5 vminpu=0.93 daily="RES_3_SA" 
New "Load.BT_2922_M2" bus1="UC2530.1.4" phases=1 conn=delta model=3 kv=0.22 kw = 309.7634612535049 pf=0.92 status=variable vmaxpu=1.5 vminpu=0.93 daily="RES_3_SA"
 
New "Load.BT_8626_M1" bus1="UC16140.1.2.3.4" phases=3 conn=delta model=2 kv=0.38 kw = 6900.63421515338 pf=0.92 status=variable vmaxpu=1.5 vminpu=0.93 daily="RES_3_SA" 
New "Load.BT_8626_M2" bus1="UC16140.1.2.3.4" phases=3 conn=delta model=3 kv=0.38 kw = 6900.63421515338 pf=0.92 status=variable vmaxpu=1.5 vminpu=0.93 daily="RES_3_SA"
 
New "Load.BT_288_M1" bus1="UC16156.3.4" phases=1 conn=delta model=2 kv=0.22 kw = 4.6420211402783025 pf=0.92 status=variable vmaxpu=1.5 vminpu=0.93 daily="RES_7_SA" 
New "Load.BT_288_M2" bus1="UC16156.3.4" phases=1 conn=delta model=3 kv=0.22 kw = 4.6420211402783025 pf=0.92 status=variable vmaxpu=1.5 vminpu=0.93 daily="RES_7_SA"
 
New "Load.BT_715_M1" bus1="UC16132.3.4" phases=1 conn=delta model=2 kv=0.22 kw = 44.04046323253666 pf=0.92 status=variable vmaxpu=1.5 vminpu=0.93 daily="COM_5_SA" 
New "Load.BT_715_M2" bus1="UC16132.3.4" phases=1 conn=delta model=3 kv=0.22 kw = 44.04046323253666 pf=0.92 status=variable vmaxpu=1.5 vminpu=0.93 daily="COM_5_SA"
 
New "Load.BT_1454_M1" bus1="UC8216.3.4" phases=1 conn=delta model=2 kv=0.22 kw = 1246.5180248032607 pf=0.92 status=variable vmaxpu=1.5 vminpu=0.93 daily="RES_3_SA" 
New "Load.BT_1454_M2" bus1="UC8216.3.4" phases=1 conn=delta model=3 kv=0.22 kw = 1246.5180248032607 pf=0.92 status=variable vmaxpu=1.5 vminpu=0.93 daily="RES_3_SA"
 
New "Load.BT_1169_M1" bus1="UC16139.2.4" phases=1 conn=delta model=2 kv=0.22 kw = 690.4366305048001 pf=0.92 status=variable vmaxpu=1.5 vminpu=0.93 daily="RES_3_SA" 
New "Load.BT_1169_M2" bus1="UC16139.2.4" phases=1 conn=delta model=3 kv=0.22 kw = 690.4366305048001 pf=0.92 status=variable vmaxpu=1.5 vminpu=0.93 daily="RES_3_SA"
 
New "Load.BT_2362_M1" bus1="UC16135.3.4" phases=1 conn=delta model=2 kv=0.22 kw = 425.45824798674164 pf=0.92 status=variable vmaxpu=1.5 vminpu=0.93 daily="RES_3_SA" 
New "Load.BT_2362_M2" bus1="UC16135.3.4" phases=1 conn=delta model=3 kv=0.22 kw = 425.45824798674164 pf=0.92 status=variable vmaxpu=1.5 vminpu=0.93 daily="RES_3_SA"
 
New "Load.BT_7328_M1" bus1="UC16138.3.4" phases=1 conn=delta model=2 kv=0.22 kw = 44.04046323253666 pf=0.92 status=variable vmaxpu=1.5 vminpu=0.93 daily="COM_5_SA" 
New "Load.BT_7328_M2" bus1="UC16138.3.4" phases=1 conn=delta model=3 kv=0.22 kw = 44.04046323253666 pf=0.92 status=variable vmaxpu=1.5 vminpu=0.93 daily="COM_5_SA"
 
New "Load.BT_1673_M1" bus1="UC8555.3.4" phases=1 conn=delta model=2 kv=0.22 kw = 925.5582938658941 pf=0.92 status=variable vmaxpu=1.5 vminpu=0.93 daily="RES_3_SA" 
New "Load.BT_1673_M2" bus1="UC8555.3.4" phases=1 conn=delta model=3 kv=0.22 kw = 925.5582938658941 pf=0.92 status=variable vmaxpu=1.5 vminpu=0.93 daily="RES_3_SA"
 
New "Load.BT_1124_M1" bus1="UC15362.2.3.4" phases=2 conn=delta model=2 kv=0.38 kw = 4.6420211402783025 pf=0.92 status=variable vmaxpu=1.5 vminpu=0.93 daily="RES_7_SA" 
New "Load.BT_1124_M2" bus1="UC15362.2.3.4" phases=2 conn=delta model=3 kv=0.38 kw = 4.6420211402783025 pf=0.92 status=variable vmaxpu=1.5 vminpu=0.93 daily="RES_7_SA"
 
New "Load.BT_84_M1" bus1="UC5102.1.4" phases=1 conn=delta model=2 kv=0.22 kw = 541.1530347199785 pf=0.92 status=variable vmaxpu=1.5 vminpu=0.93 daily="RES_3_SA" 
New "Load.BT_84_M2" bus1="UC5102.1.4" phases=1 conn=delta model=3 kv=0.22 kw = 541.1530347199785 pf=0.92 status=variable vmaxpu=1.5 vminpu=0.93 daily="RES_3_SA"
 
New "Load.BT_1414_M1" bus1="UC7753.1.4" phases=1 conn=delta model=2 kv=0.22 kw = 77.71846452800587 pf=0.92 status=variable vmaxpu=1.5 vminpu=0.93 daily="COM_5_SA" 
New "Load.BT_1414_M2" bus1="UC7753.1.4" phases=1 conn=delta model=3 kv=0.22 kw = 77.71846452800587 pf=0.92 status=variable vmaxpu=1.5 vminpu=0.93 daily="COM_5_SA"
 
New "Load.BT_6437_M1" bus1="UC12439.3.4" phases=1 conn=delta model=2 kv=0.22 kw = 235.12166336109405 pf=0.92 status=variable vmaxpu=1.5 vminpu=0.93 daily="RES_3_SA" 
New "Load.BT_6437_M2" bus1="UC12439.3.4" phases=1 conn=delta model=3 kv=0.22 kw = 235.12166336109405 pf=0.92 status=variable vmaxpu=1.5 vminpu=0.93 daily="RES_3_SA"
 
New "Load.BT_2368_M1" bus1="UC9732.1.4" phases=1 conn=delta model=2 kv=0.22 kw = 112.89279671382816 pf=0.92 status=variable vmaxpu=1.5 vminpu=0.93 daily="RES_2_SA" 
New "Load.BT_2368_M2" bus1="UC9732.1.4" phases=1 conn=delta model=3 kv=0.22 kw = 112.89279671382816 pf=0.92 status=variable vmaxpu=1.5 vminpu=0.93 daily="RES_2_SA"
 
New "Load.BT_491_M1" bus1="UC1855.1.4" phases=1 conn=delta model=2 kv=0.22 kw = 561.1436071952047 pf=0.92 status=variable vmaxpu=1.5 vminpu=0.93 daily="RES_2_SA" 
New "Load.BT_491_M2" bus1="UC1855.1.4" phases=1 conn=delta model=3 kv=0.22 kw = 561.1436071952047 pf=0.92 status=variable vmaxpu=1.5 vminpu=0.93 daily="RES_2_SA"
 
New "Load.BT_1491_M1" bus1="UC1136.2.4" phases=1 conn=delta model=2 kv=0.22 kw = 515.2643465708916 pf=0.92 status=variable vmaxpu=1.5 vminpu=0.93 daily="RES_7_SA" 
New "Load.BT_1491_M2" bus1="UC1136.2.4" phases=1 conn=delta model=3 kv=0.22 kw = 515.2643465708916 pf=0.92 status=variable vmaxpu=1.5 vminpu=0.93 daily="RES_7_SA"
 
New "Load.BT_2368_M1" bus1="UC9732.2.4" phases=1 conn=delta model=2 kv=0.22 kw = 170.19789762733342 pf=0.92 status=variable vmaxpu=1.5 vminpu=0.93 daily="RES_9_SA" 
New "Load.BT_2368_M2" bus1="UC9732.2.4" phases=1 conn=delta model=3 kv=0.22 kw = 170.19789762733342 pf=0.92 status=variable vmaxpu=1.5 vminpu=0.93 daily="RES_9_SA"
 
New "Load.BT_8141_M1" bus1="UC15851.3.4" phases=1 conn=delta model=2 kv=0.22 kw = 111.40850736667926 pf=0.92 status=variable vmaxpu=1.5 vminpu=0.93 daily="RES_7_SA" 
New "Load.BT_8141_M2" bus1="UC15851.3.4" phases=1 conn=delta model=3 kv=0.22 kw = 111.40850736667926 pf=0.92 status=variable vmaxpu=1.5 vminpu=0.93 daily="RES_7_SA"
 
New "Load.BT_7354_M1" bus1="UC15850.3.1.4" phases=2 conn=delta model=2 kv=0.38 kw = 21.111686459028146 pf=0.92 status=variable vmaxpu=1.5 vminpu=0.93 daily="RES_1_SA" 
New "Load.BT_7354_M2" bus1="UC15850.3.1.4" phases=2 conn=delta model=3 kv=0.38 kw = 21.111686459028146 pf=0.92 status=variable vmaxpu=1.5 vminpu=0.93 daily="RES_1_SA"
 
New "Load.BT_918_M1" bus1="UC15688.1.4" phases=1 conn=delta model=2 kv=0.22 kw = 18.660449473102705 pf=0.92 status=variable vmaxpu=1.5 vminpu=0.93 daily="RES_3_SA" 
New "Load.BT_918_M2" bus1="UC15688.1.4" phases=1 conn=delta model=3 kv=0.22 kw = 18.660449473102705 pf=0.92 status=variable vmaxpu=1.5 vminpu=0.93 daily="RES_3_SA"
 
New "Load.BT_2932_M1" bus1="UC10153.2.4" phases=1 conn=delta model=2 kv=0.22 kw = 933.0224736551352 pf=0.92 status=variable vmaxpu=1.5 vminpu=0.93 daily="RES_3_SA" 
New "Load.BT_2932_M2" bus1="UC10153.2.4" phases=1 conn=delta model=3 kv=0.22 kw = 933.0224736551352 pf=0.92 status=variable vmaxpu=1.5 vminpu=0.93 daily="RES_3_SA"
 
New "Load.BT_6949_M1" bus1="UC15497.1.4" phases=1 conn=delta model=2 kv=0.22 kw = 886.5404918409447 pf=0.92 status=variable vmaxpu=1.5 vminpu=0.93 daily="RES_2_SA" 
New "Load.BT_6949_M2" bus1="UC15497.1.4" phases=1 conn=delta model=3 kv=0.22 kw = 886.5404918409447 pf=0.92 status=variable vmaxpu=1.5 vminpu=0.93 daily="RES_2_SA"
 
New "Load.BT_6949_M1" bus1="UC15497.3.4" phases=1 conn=delta model=2 kv=0.22 kw = 79.68903297446694 pf=0.92 status=variable vmaxpu=1.5 vminpu=0.93 daily="RES_2_SA" 
New "Load.BT_6949_M2" bus1="UC15497.3.4" phases=1 conn=delta model=3 kv=0.22 kw = 79.68903297446694 pf=0.92 status=variable vmaxpu=1.5 vminpu=0.93 daily="RES_2_SA"
 
New "Load.BT_1531_M1" bus1="UC5544.2.4" phases=1 conn=delta model=2 kv=0.22 kw = 717.2012967702025 pf=0.92 status=variable vmaxpu=1.5 vminpu=0.93 daily="RES_2_SA" 
New "Load.BT_1531_M2" bus1="UC5544.2.4" phases=1 conn=delta model=3 kv=0.22 kw = 717.2012967702025 pf=0.92 status=variable vmaxpu=1.5 vminpu=0.93 daily="RES_2_SA"
 
New "Load.BT_293_M1" bus1="UC15499.3.4" phases=1 conn=delta model=2 kv=0.22 kw = 401.7655412462708 pf=0.92 status=variable vmaxpu=1.5 vminpu=0.93 daily="RES_2_SA" 
New "Load.BT_293_M2" bus1="UC15499.3.4" phases=1 conn=delta model=3 kv=0.22 kw = 401.7655412462708 pf=0.92 status=variable vmaxpu=1.5 vminpu=0.93 daily="RES_2_SA"
 
New "Load.BT_1432_M1" bus1="UC8603.1.2.3.4" phases=3 conn=delta model=2 kv=0.38 kw = 1325.6206851840586 pf=0.92 status=variable vmaxpu=1.5 vminpu=0.93 daily="COM_1_SA" 
New "Load.BT_1432_M2" bus1="UC8603.1.2.3.4" phases=3 conn=delta model=3 kv=0.38 kw = 1325.6206851840586 pf=0.92 status=variable vmaxpu=1.5 vminpu=0.93 daily="COM_1_SA"
 
New "Load.BT_8049_M1" bus1="UC15509.1.2.4" phases=2 conn=delta model=2 kv=0.38 kw = 39.84451648723347 pf=0.92 status=variable vmaxpu=1.5 vminpu=0.93 daily="RES_2_SA" 
New "Load.BT_8049_M2" bus1="UC15509.1.2.4" phases=2 conn=delta model=3 kv=0.38 kw = 39.84451648723347 pf=0.92 status=variable vmaxpu=1.5 vminpu=0.93 daily="RES_2_SA"
 
New "Load.BT_2623_M1" bus1="UC15510.1.2.3.4" phases=3 conn=delta model=2 kv=0.38 kw = 942.5895826811271 pf=0.92 status=variable vmaxpu=1.5 vminpu=0.93 daily="COM_1_SA" 
New "Load.BT_2623_M2" bus1="UC15510.1.2.3.4" phases=3 conn=delta model=3 kv=0.38 kw = 942.5895826811271 pf=0.92 status=variable vmaxpu=1.5 vminpu=0.93 daily="COM_1_SA"
 
New "Load.BT_3013_M1" bus1="UC6671.1.4" phases=1 conn=delta model=2 kv=0.22 kw = 275.59123903669814 pf=0.92 status=variable vmaxpu=1.5 vminpu=0.93 daily="RES_2_SA" 
New "Load.BT_3013_M2" bus1="UC6671.1.4" phases=1 conn=delta model=3 kv=0.22 kw = 275.59123903669814 pf=0.92 status=variable vmaxpu=1.5 vminpu=0.93 daily="RES_2_SA"
 
New "Load.BT_6930_M1" bus1="UC9626.3.4" phases=1 conn=delta model=2 kv=0.22 kw = 527.9398434558435 pf=0.92 status=variable vmaxpu=1.5 vminpu=0.93 daily="RES_2_SA" 
New "Load.BT_6930_M2" bus1="UC9626.3.4" phases=1 conn=delta model=3 kv=0.22 kw = 527.9398434558435 pf=0.92 status=variable vmaxpu=1.5 vminpu=0.93 daily="RES_2_SA"
 
New "Load.BT_2941_M1" bus1="UC13002.3.4" phases=1 conn=delta model=2 kv=0.22 kw = 96.59045193552186 pf=0.92 status=variable vmaxpu=1.5 vminpu=0.93 daily="COM_1_SA" 
New "Load.BT_2941_M2" bus1="UC13002.3.4" phases=1 conn=delta model=3 kv=0.22 kw = 96.59045193552186 pf=0.92 status=variable vmaxpu=1.5 vminpu=0.93 daily="COM_1_SA"
 
New "Load.BT_7308_M1" bus1="UC13331.1.4" phases=1 conn=delta model=2 kv=0.22 kw = 26.56301099148898 pf=0.92 status=variable vmaxpu=1.5 vminpu=0.93 daily="RES_2_SA" 
New "Load.BT_7308_M2" bus1="UC13331.1.4" phases=1 conn=delta model=3 kv=0.22 kw = 26.56301099148898 pf=0.92 status=variable vmaxpu=1.5 vminpu=0.93 daily="RES_2_SA"
 
New "Load.BT_3010_M1" bus1="UC14890.1.2.3.4" phases=3 conn=delta model=2 kv=0.38 kw = 298.833873654251 pf=0.92 status=variable vmaxpu=1.5 vminpu=0.93 daily="RES_2_SA" 
New "Load.BT_3010_M2" bus1="UC14890.1.2.3.4" phases=3 conn=delta model=3 kv=0.38 kw = 298.833873654251 pf=0.92 status=variable vmaxpu=1.5 vminpu=0.93 daily="RES_2_SA"
 
New "Load.BT_3010_M1" bus1="UC14890.1.2.3.4" phases=3 conn=delta model=2 kv=0.38 kw = 368.5617775069096 pf=0.92 status=variable vmaxpu=1.5 vminpu=0.93 daily="RES_2_SA" 
New "Load.BT_3010_M2" bus1="UC14890.1.2.3.4" phases=3 conn=delta model=3 kv=0.38 kw = 368.5617775069096 pf=0.92 status=variable vmaxpu=1.5 vminpu=0.93 daily="RES_2_SA"
 
New "Load.BT_1267_M1" bus1="UC15137.1.2.3.4" phases=3 conn=delta model=2 kv=0.38 kw = 7275.92559493612 pf=0.92 status=variable vmaxpu=1.5 vminpu=0.93 daily="IND_1_SA" 
New "Load.BT_1267_M2" bus1="UC15137.1.2.3.4" phases=3 conn=delta model=3 kv=0.38 kw = 7275.92559493612 pf=0.92 status=variable vmaxpu=1.5 vminpu=0.93 daily="IND_1_SA"
 
New "Load.BT_1115_M1" bus1="UC7113.1.4" phases=1 conn=delta model=2 kv=0.22 kw = 514.658337960099 pf=0.92 status=variable vmaxpu=1.5 vminpu=0.93 daily="RES_2_SA" 
New "Load.BT_1115_M2" bus1="UC7113.1.4" phases=1 conn=delta model=3 kv=0.22 kw = 514.658337960099 pf=0.92 status=variable vmaxpu=1.5 vminpu=0.93 daily="RES_2_SA"
 
New "Load.BT_7226_M1" bus1="UC9718.1.4" phases=1 conn=delta model=2 kv=0.22 kw = 212.50408793191184 pf=0.92 status=variable vmaxpu=1.5 vminpu=0.93 daily="RES_2_SA" 
New "Load.BT_7226_M2" bus1="UC9718.1.4" phases=1 conn=delta model=3 kv=0.22 kw = 212.50408793191184 pf=0.92 status=variable vmaxpu=1.5 vminpu=0.93 daily="RES_2_SA"
 
New "Load.BT_7764_M1" bus1="UC10594.3.1.4" phases=2 conn=delta model=2 kv=0.38 kw = 304.93004062622936 pf=0.92 status=variable vmaxpu=1.5 vminpu=0.93 daily="RES_11_SA" 
New "Load.BT_7764_M2" bus1="UC10594.3.1.4" phases=2 conn=delta model=3 kv=0.38 kw = 304.93004062622936 pf=0.92 status=variable vmaxpu=1.5 vminpu=0.93 daily="RES_11_SA"
 
New "Load.BT_1983_M1" bus1="UC15149.1.2.4" phases=2 conn=delta model=2 kv=0.38 kw = 451.57118685531265 pf=0.92 status=variable vmaxpu=1.5 vminpu=0.93 daily="RES_2_SA" 
New "Load.BT_1983_M2" bus1="UC15149.1.2.4" phases=2 conn=delta model=3 kv=0.38 kw = 451.57118685531265 pf=0.92 status=variable vmaxpu=1.5 vminpu=0.93 daily="RES_2_SA"
 
New "Load.BT_6423_M1" bus1="UC13667.1.2.3.4" phases=3 conn=delta model=2 kv=0.38 kw = 881.9840166528775 pf=0.92 status=variable vmaxpu=1.5 vminpu=0.93 daily="RES_7_SA" 
New "Load.BT_6423_M2" bus1="UC13667.1.2.3.4" phases=3 conn=delta model=3 kv=0.38 kw = 881.9840166528775 pf=0.92 status=variable vmaxpu=1.5 vminpu=0.93 daily="RES_7_SA"
 
New "Load.BT_6614_M1" bus1="UC15154.3.4" phases=1 conn=delta model=2 kv=0.22 kw = 883.1722168693441 pf=0.92 status=variable vmaxpu=1.5 vminpu=0.93 daily="RES_1_SA" 
New "Load.BT_6614_M2" bus1="UC15154.3.4" phases=1 conn=delta model=3 kv=0.22 kw = 883.1722168693441 pf=0.92 status=variable vmaxpu=1.5 vminpu=0.93 daily="RES_1_SA"
 
New "Load.BT_8374_M1" bus1="UC15150.1.2.3.4" phases=3 conn=delta model=2 kv=0.38 kw = 740.4439313877554 pf=0.92 status=variable vmaxpu=1.5 vminpu=0.93 daily="RES_2_SA" 
New "Load.BT_8374_M2" bus1="UC15150.1.2.3.4" phases=3 conn=delta model=3 kv=0.38 kw = 740.4439313877554 pf=0.92 status=variable vmaxpu=1.5 vminpu=0.93 daily="RES_2_SA"
 
New "Load.BT_3034_M1" bus1="UC14783.1.2.3.4" phases=3 conn=delta model=2 kv=0.38 kw = 205.86333518403958 pf=0.92 status=variable vmaxpu=1.5 vminpu=0.93 daily="RES_2_SA" 
New "Load.BT_3034_M2" bus1="UC14783.1.2.3.4" phases=3 conn=delta model=3 kv=0.38 kw = 205.86333518403958 pf=0.92 status=variable vmaxpu=1.5 vminpu=0.93 daily="RES_2_SA"
 
New "Load.BT_1488_M1" bus1="UC10551.2.4" phases=1 conn=delta model=2 kv=0.22 kw = 321.2240122627454 pf=0.92 status=variable vmaxpu=1.5 vminpu=0.93 daily="RES_11_SA" 
New "Load.BT_1488_M2" bus1="UC10551.2.4" phases=1 conn=delta model=3 kv=0.22 kw = 321.2240122627454 pf=0.92 status=variable vmaxpu=1.5 vminpu=0.93 daily="RES_11_SA"
 
New "Load.BT_927_M1" bus1="UC15130.3.4" phases=1 conn=delta model=2 kv=0.22 kw = 44.96452072860501 pf=0.92 status=variable vmaxpu=1.5 vminpu=0.93 daily="COM_1_SA" 
New "Load.BT_927_M2" bus1="UC15130.3.4" phases=1 conn=delta model=3 kv=0.22 kw = 44.96452072860501 pf=0.92 status=variable vmaxpu=1.5 vminpu=0.93 daily="COM_1_SA"
 
New "Load.BT_15_M1" bus1="UC11345.3.4" phases=1 conn=delta model=2 kv=0.22 kw = 209.5199662294834 pf=0.92 status=variable vmaxpu=1.5 vminpu=0.93 daily="RES_8_SA" 
New "Load.BT_15_M2" bus1="UC11345.3.4" phases=1 conn=delta model=3 kv=0.22 kw = 209.5199662294834 pf=0.92 status=variable vmaxpu=1.5 vminpu=0.93 daily="RES_8_SA"
 
New "Load.BT_6637_M1" bus1="UC1871.2.4" phases=1 conn=delta model=2 kv=0.22 kw = 599.2406154179612 pf=0.92 status=variable vmaxpu=1.5 vminpu=0.93 daily="RES_13_SA" 
New "Load.BT_6637_M2" bus1="UC1871.2.4" phases=1 conn=delta model=3 kv=0.22 kw = 599.2406154179612 pf=0.92 status=variable vmaxpu=1.5 vminpu=0.93 daily="RES_13_SA"
 
New "Load.BT_387_M1" bus1="UC15581.1.2.3.4" phases=3 conn=delta model=2 kv=0.38 kw = 675.5082709263179 pf=0.92 status=variable vmaxpu=1.5 vminpu=0.93 daily="RES_3_SA" 
New "Load.BT_387_M2" bus1="UC15581.1.2.3.4" phases=3 conn=delta model=3 kv=0.38 kw = 675.5082709263179 pf=0.92 status=variable vmaxpu=1.5 vminpu=0.93 daily="RES_3_SA"
 
New "Load.BT_8263_M1" bus1="UC14653.1.2.3.4" phases=3 conn=delta model=2 kv=0.38 kw = 1324.8919125902921 pf=0.92 status=variable vmaxpu=1.5 vminpu=0.93 daily="RES_3_SA" 
New "Load.BT_8263_M2" bus1="UC14653.1.2.3.4" phases=3 conn=delta model=3 kv=0.38 kw = 1324.8919125902921 pf=0.92 status=variable vmaxpu=1.5 vminpu=0.93 daily="RES_3_SA"
 
New "Load.BT_1454_M1" bus1="UC8216.3.4" phases=1 conn=delta model=2 kv=0.22 kw = 432.9224277759827 pf=0.92 status=variable vmaxpu=1.5 vminpu=0.93 daily="RES_3_SA" 
New "Load.BT_1454_M2" bus1="UC8216.3.4" phases=1 conn=delta model=3 kv=0.22 kw = 432.9224277759827 pf=0.92 status=variable vmaxpu=1.5 vminpu=0.93 daily="RES_3_SA"
 
New "Load.BT_1314_M1" bus1="UC16125.1.2.3.4" phases=3 conn=delta model=2 kv=0.38 kw = 18.56808456111321 pf=0.92 status=variable vmaxpu=1.5 vminpu=0.93 daily="RES_7_SA" 
New "Load.BT_1314_M2" bus1="UC16125.1.2.3.4" phases=3 conn=delta model=3 kv=0.38 kw = 18.56808456111321 pf=0.92 status=variable vmaxpu=1.5 vminpu=0.93 daily="RES_7_SA"
 
New "Load.BT_8044_M1" bus1="UC16120.1.2.3.4" phases=3 conn=delta model=2 kv=0.38 kw = 6867.045406101795 pf=0.92 status=variable vmaxpu=1.5 vminpu=0.93 daily="RES_3_SA" 
New "Load.BT_8044_M2" bus1="UC16120.1.2.3.4" phases=3 conn=delta model=3 kv=0.38 kw = 6867.045406101795 pf=0.92 status=variable vmaxpu=1.5 vminpu=0.93 daily="RES_3_SA"
 
New "Load.BT_6919_M1" bus1="UC16117.1.4" phases=1 conn=delta model=2 kv=0.22 kw = 1000.200091758305 pf=0.92 status=variable vmaxpu=1.5 vminpu=0.93 daily="RES_3_SA" 
New "Load.BT_6919_M2" bus1="UC16117.1.4" phases=1 conn=delta model=3 kv=0.22 kw = 1000.200091758305 pf=0.92 status=variable vmaxpu=1.5 vminpu=0.93 daily="RES_3_SA"
 
New "Load.BT_1445_M1" bus1="UC2901.2.4" phases=1 conn=delta model=2 kv=0.22 kw = 645.6515517693535 pf=0.92 status=variable vmaxpu=1.5 vminpu=0.93 daily="RES_3_SA" 
New "Load.BT_1445_M2" bus1="UC2901.2.4" phases=1 conn=delta model=3 kv=0.22 kw = 645.6515517693535 pf=0.92 status=variable vmaxpu=1.5 vminpu=0.93 daily="RES_3_SA"
 
New "Load.BT_3107_M1" bus1="UC8431.2.4" phases=1 conn=delta model=2 kv=0.22 kw = 951.6829231282379 pf=0.92 status=variable vmaxpu=1.5 vminpu=0.93 daily="RES_3_SA" 
New "Load.BT_3107_M2" bus1="UC8431.2.4" phases=1 conn=delta model=3 kv=0.22 kw = 951.6829231282379 pf=0.92 status=variable vmaxpu=1.5 vminpu=0.93 daily="RES_3_SA"
 
New "Load.BT_8422_M1" bus1="UC16128.1.4" phases=1 conn=delta model=2 kv=0.22 kw = 74.27233824445284 pf=0.92 status=variable vmaxpu=1.5 vminpu=0.93 daily="RES_7_SA" 
New "Load.BT_8422_M2" bus1="UC16128.1.4" phases=1 conn=delta model=3 kv=0.22 kw = 74.27233824445284 pf=0.92 status=variable vmaxpu=1.5 vminpu=0.93 daily="RES_7_SA"
 
New "Load.BT_8514_M1" bus1="UC15685.1.2.3.4" phases=3 conn=delta model=2 kv=0.38 kw = 424.66491799238054 pf=0.92 status=variable vmaxpu=1.5 vminpu=0.93 daily="COM_1_SA" 
New "Load.BT_8514_M2" bus1="UC15685.1.2.3.4" phases=3 conn=delta model=3 kv=0.38 kw = 424.66491799238054 pf=0.92 status=variable vmaxpu=1.5 vminpu=0.93 daily="COM_1_SA"
 
New "Load.BT_2932_M1" bus1="UC10153.2.4" phases=1 conn=delta model=2 kv=0.22 kw = 444.9304341074405 pf=0.92 status=variable vmaxpu=1.5 vminpu=0.93 daily="RES_2_SA" 
New "Load.BT_2932_M2" bus1="UC10153.2.4" phases=1 conn=delta model=3 kv=0.22 kw = 444.9304341074405 pf=0.92 status=variable vmaxpu=1.5 vminpu=0.93 daily="RES_2_SA"
 
New "Load.BT_7928_M1" bus1="UC15838.2.4" phases=1 conn=delta model=2 kv=0.22 kw = 0.0 pf=0.92 status=variable vmaxpu=1.5 vminpu=0.93 daily="RES_2_SA" 
New "Load.BT_7928_M2" bus1="UC15838.2.4" phases=1 conn=delta model=3 kv=0.22 kw = 0.0 pf=0.92 status=variable vmaxpu=1.5 vminpu=0.93 daily="RES_2_SA"
 
New "Load.BT_7378_M1" bus1="UC15839.2.3.4" phases=2 conn=delta model=2 kv=0.38 kw = 33.64377046121707 pf=0.92 status=variable vmaxpu=1.5 vminpu=0.93 daily="RES_9_SA" 
New "Load.BT_7378_M2" bus1="UC15839.2.3.4" phases=2 conn=delta model=3 kv=0.38 kw = 33.64377046121707 pf=0.92 status=variable vmaxpu=1.5 vminpu=0.93 daily="RES_9_SA"
 
New "Load.BT_2395_M1" bus1="UC14029.1.4" phases=1 conn=delta model=2 kv=0.22 kw = 474.81382147286547 pf=0.92 status=variable vmaxpu=1.5 vminpu=0.93 daily="RES_2_SA" 
New "Load.BT_2395_M2" bus1="UC14029.1.4" phases=1 conn=delta model=3 kv=0.22 kw = 474.81382147286547 pf=0.92 status=variable vmaxpu=1.5 vminpu=0.93 daily="RES_2_SA"
 
New "Load.BT_8159_M1" bus1="UC15841.2.4" phases=1 conn=delta model=2 kv=0.22 kw = 7.456154894072987 pf=0.92 status=variable vmaxpu=1.5 vminpu=0.93 daily="RES_4_SA" 
New "Load.BT_8159_M2" bus1="UC15841.2.4" phases=1 conn=delta model=3 kv=0.22 kw = 7.456154894072987 pf=0.92 status=variable vmaxpu=1.5 vminpu=0.93 daily="RES_4_SA"
 
New "Load.BT_1678_M1" bus1="UC358.3.1.4" phases=2 conn=delta model=2 kv=0.38 kw = 919.2746460070357 pf=0.92 status=variable vmaxpu=1.5 vminpu=0.93 daily="COM_1_SA" 
New "Load.BT_1678_M2" bus1="UC358.3.1.4" phases=2 conn=delta model=3 kv=0.38 kw = 919.2746460070357 pf=0.92 status=variable vmaxpu=1.5 vminpu=0.93 daily="COM_1_SA"
 
New "Load.BT_474_M1" bus1="UC6892.2.4" phases=1 conn=delta model=2 kv=0.22 kw = 288.87274453244265 pf=0.92 status=variable vmaxpu=1.5 vminpu=0.93 daily="RES_2_SA" 
New "Load.BT_474_M2" bus1="UC6892.2.4" phases=1 conn=delta model=3 kv=0.22 kw = 288.87274453244265 pf=0.92 status=variable vmaxpu=1.5 vminpu=0.93 daily="RES_2_SA"
 
New "Load.BT_3034_M1" bus1="UC14783.1.2.3.4" phases=3 conn=delta model=2 kv=0.38 kw = 229.10596980159244 pf=0.92 status=variable vmaxpu=1.5 vminpu=0.93 daily="RES_2_SA" 
New "Load.BT_3034_M2" bus1="UC14783.1.2.3.4" phases=3 conn=delta model=3 kv=0.38 kw = 229.10596980159244 pf=0.92 status=variable vmaxpu=1.5 vminpu=0.93 daily="RES_2_SA"
 
New "Load.BT_7427_M1" bus1="UC15490.2.4" phases=1 conn=delta model=2 kv=0.22 kw = 504.69720883829063 pf=0.92 status=variable vmaxpu=1.5 vminpu=0.93 daily="RES_2_SA" 
New "Load.BT_7427_M2" bus1="UC15490.2.4" phases=1 conn=delta model=3 kv=0.22 kw = 504.69720883829063 pf=0.92 status=variable vmaxpu=1.5 vminpu=0.93 daily="RES_2_SA"
 
New "Load.BT_6397_M1" bus1="UC15492.1.2.3.4" phases=3 conn=delta model=2 kv=0.38 kw = 142.77618407925328 pf=0.92 status=variable vmaxpu=1.5 vminpu=0.93 daily="RES_2_SA" 
New "Load.BT_6397_M2" bus1="UC15492.1.2.3.4" phases=3 conn=delta model=3 kv=0.38 kw = 142.77618407925328 pf=0.92 status=variable vmaxpu=1.5 vminpu=0.93 daily="RES_2_SA"
 
New "Load.BT_855_M1" bus1="UC15495.1.2.3.4" phases=3 conn=delta model=2 kv=0.38 kw = 226.487956262603 pf=0.92 status=variable vmaxpu=1.5 vminpu=0.93 daily="COM_1_SA" 
New "Load.BT_855_M2" bus1="UC15495.1.2.3.4" phases=3 conn=delta model=3 kv=0.38 kw = 226.487956262603 pf=0.92 status=variable vmaxpu=1.5 vminpu=0.93 daily="COM_1_SA"
 
New "Load.BT_937_M1" bus1="UC15493.2.4" phases=1 conn=delta model=2 kv=0.22 kw = 508.0175852122268 pf=0.92 status=variable vmaxpu=1.5 vminpu=0.93 daily="RES_2_SA" 
New "Load.BT_937_M2" bus1="UC15493.2.4" phases=1 conn=delta model=3 kv=0.22 kw = 508.0175852122268 pf=0.92 status=variable vmaxpu=1.5 vminpu=0.93 daily="RES_2_SA"
 
New "Load.BT_7261_M1" bus1="UC15496.3.4" phases=1 conn=delta model=2 kv=0.38 kw = 29.883387365425104 pf=0.92 status=variable vmaxpu=1.5 vminpu=0.93 daily="RES_2_SA" 
New "Load.BT_7261_M2" bus1="UC15496.3.4" phases=1 conn=delta model=3 kv=0.38 kw = 29.883387365425104 pf=0.92 status=variable vmaxpu=1.5 vminpu=0.93 daily="RES_2_SA"
 
New "Load.BT_358_M1" bus1="UC14400.1.4" phases=1 conn=delta model=2 kv=0.22 kw = 338.6783901414845 pf=0.92 status=variable vmaxpu=1.5 vminpu=0.93 daily="RES_2_SA" 
New "Load.BT_358_M2" bus1="UC14400.1.4" phases=1 conn=delta model=3 kv=0.22 kw = 338.6783901414845 pf=0.92 status=variable vmaxpu=1.5 vminpu=0.93 daily="RES_2_SA"
 
New "Load.BT_490_M1" bus1="UC6077.1.4" phases=1 conn=delta model=2 kv=0.22 kw = 421.6877994898876 pf=0.92 status=variable vmaxpu=1.5 vminpu=0.93 daily="RES_2_SA" 
New "Load.BT_490_M2" bus1="UC6077.1.4" phases=1 conn=delta model=3 kv=0.22 kw = 421.6877994898876 pf=0.92 status=variable vmaxpu=1.5 vminpu=0.93 daily="RES_2_SA"
 
New "Load.BT_1862_M1" bus1="UC7595.2.3.4" phases=2 conn=delta model=2 kv=0.38 kw = 1309.0499615584813 pf=0.92 status=variable vmaxpu=1.5 vminpu=0.93 daily="RES_7_SA" 
New "Load.BT_1862_M2" bus1="UC7595.2.3.4" phases=2 conn=delta model=3 kv=0.38 kw = 1309.0499615584813 pf=0.92 status=variable vmaxpu=1.5 vminpu=0.93 daily="RES_7_SA"
 
New "Load.BT_1488_M1" bus1="UC10551.3.4" phases=1 conn=delta model=2 kv=0.22 kw = 416.66013184805394 pf=0.92 status=variable vmaxpu=1.5 vminpu=0.93 daily="RES_11_SA" 
New "Load.BT_1488_M2" bus1="UC10551.3.4" phases=1 conn=delta model=3 kv=0.22 kw = 416.66013184805394 pf=0.92 status=variable vmaxpu=1.5 vminpu=0.93 daily="RES_11_SA"
 
New "Load.BT_2624_M1" bus1="UC8865.3.4" phases=1 conn=delta model=2 kv=0.22 kw = 501.32548217973226 pf=0.92 status=variable vmaxpu=1.5 vminpu=0.93 daily="RES_13_SA" 
New "Load.BT_2624_M2" bus1="UC8865.3.4" phases=1 conn=delta model=3 kv=0.22 kw = 501.32548217973226 pf=0.92 status=variable vmaxpu=1.5 vminpu=0.93 daily="RES_13_SA"
 
New "Load.BT_1840_M1" bus1="UC5847.2.4" phases=1 conn=delta model=2 kv=0.22 kw = 879.8997390930724 pf=0.92 status=variable vmaxpu=1.5 vminpu=0.93 daily="RES_2_SA" 
New "Load.BT_1840_M2" bus1="UC5847.2.4" phases=1 conn=delta model=3 kv=0.22 kw = 879.8997390930724 pf=0.92 status=variable vmaxpu=1.5 vminpu=0.93 daily="RES_2_SA"
 
New "Load.BT_1452_M1" bus1="UC8287.2.4" phases=1 conn=delta model=2 kv=0.22 kw = 1029.1879188991813 pf=0.92 status=variable vmaxpu=1.5 vminpu=0.93 daily="COM_1_SA" 
New "Load.BT_1452_M2" bus1="UC8287.2.4" phases=1 conn=delta model=3 kv=0.22 kw = 1029.1879188991813 pf=0.92 status=variable vmaxpu=1.5 vminpu=0.93 daily="COM_1_SA"
 
New "Load.BT_3034_M1" bus1="UC14783.1.2.3.4" phases=3 conn=delta model=2 kv=0.38 kw = 308.7950027760594 pf=0.92 status=variable vmaxpu=1.5 vminpu=0.93 daily="RES_2_SA" 
New "Load.BT_3034_M2" bus1="UC14783.1.2.3.4" phases=3 conn=delta model=3 kv=0.38 kw = 308.7950027760594 pf=0.92 status=variable vmaxpu=1.5 vminpu=0.93 daily="RES_2_SA"
 
New "Load.BT_929_M1" bus1="UC8105.2.4" phases=1 conn=delta model=2 kv=0.22 kw = 91.59439407678798 pf=0.92 status=variable vmaxpu=1.5 vminpu=0.93 daily="COM_1_SA" 
New "Load.BT_929_M2" bus1="UC8105.2.4" phases=1 conn=delta model=3 kv=0.22 kw = 91.59439407678798 pf=0.92 status=variable vmaxpu=1.5 vminpu=0.93 daily="COM_1_SA"
 
New "Load.BT_3034_M1" bus1="UC14783.1.2.3.4" phases=3 conn=delta model=2 kv=0.38 kw = 1129.6074664520575 pf=0.92 status=variable vmaxpu=1.5 vminpu=0.93 daily="RES_4_SA" 
New "Load.BT_3034_M2" bus1="UC14783.1.2.3.4" phases=3 conn=delta model=3 kv=0.38 kw = 1129.6074664520575 pf=0.92 status=variable vmaxpu=1.5 vminpu=0.93 daily="RES_4_SA"
 
New "Load.BT_8197_M1" bus1="UC11184.3.4" phases=1 conn=delta model=2 kv=0.22 kw = 300.27462015865336 pf=0.92 status=variable vmaxpu=1.5 vminpu=0.93 daily="RES_11_SA" 
New "Load.BT_8197_M2" bus1="UC11184.3.4" phases=1 conn=delta model=3 kv=0.22 kw = 300.27462015865336 pf=0.92 status=variable vmaxpu=1.5 vminpu=0.93 daily="RES_11_SA"
 
New "Load.BT_3010_M1" bus1="UC14890.1.2.3.4" phases=3 conn=delta model=2 kv=0.38 kw = 431.70796604588213 pf=0.92 status=variable vmaxpu=1.5 vminpu=0.93 daily="RES_7_SA" 
New "Load.BT_3010_M2" bus1="UC14890.1.2.3.4" phases=3 conn=delta model=3 kv=0.38 kw = 431.70796604588213 pf=0.92 status=variable vmaxpu=1.5 vminpu=0.93 daily="RES_7_SA"
 
New "Load.BT_377_M1" bus1="UC15109.1.4" phases=1 conn=delta model=2 kv=0.22 kw = 478.5315597379713 pf=0.92 status=variable vmaxpu=1.5 vminpu=0.93 daily="RES_1_SA" 
New "Load.BT_377_M2" bus1="UC15109.1.4" phases=1 conn=delta model=3 kv=0.22 kw = 478.5315597379713 pf=0.92 status=variable vmaxpu=1.5 vminpu=0.93 daily="RES_1_SA"
 
New "Load.BT_1750_M1" bus1="UC10549.2.4" phases=1 conn=delta model=2 kv=0.22 kw = 1.665352619577963 pf=0.92 status=variable vmaxpu=1.5 vminpu=0.93 daily="COM_1_SA" 
New "Load.BT_1750_M2" bus1="UC10549.2.4" phases=1 conn=delta model=3 kv=0.22 kw = 1.665352619577963 pf=0.92 status=variable vmaxpu=1.5 vminpu=0.93 daily="COM_1_SA"
 
New "Load.BT_639_M1" bus1="UC15090.3.4" phases=1 conn=delta model=2 kv=0.22 kw = 727.7575294510054 pf=0.92 status=variable vmaxpu=1.5 vminpu=0.93 daily="RES_3_SA" 
New "Load.BT_639_M2" bus1="UC15090.3.4" phases=1 conn=delta model=3 kv=0.22 kw = 727.7575294510054 pf=0.92 status=variable vmaxpu=1.5 vminpu=0.93 daily="RES_3_SA"
 
New "Load.BT_2214_M1" bus1="UC11074.2.4" phases=1 conn=delta model=2 kv=0.22 kw = 145.5515058902011 pf=0.92 status=variable vmaxpu=1.5 vminpu=0.93 daily="RES_3_SA" 
New "Load.BT_2214_M2" bus1="UC11074.2.4" phases=1 conn=delta model=3 kv=0.22 kw = 145.5515058902011 pf=0.92 status=variable vmaxpu=1.5 vminpu=0.93 daily="RES_3_SA"
 
New "Load.BT_8198_M1" bus1="UC15673.2.3.4" phases=2 conn=delta model=2 kv=0.38 kw = 1138.287417859265 pf=0.92 status=variable vmaxpu=1.5 vminpu=0.93 daily="RES_3_SA" 
New "Load.BT_8198_M2" bus1="UC15673.2.3.4" phases=2 conn=delta model=3 kv=0.38 kw = 1138.287417859265 pf=0.92 status=variable vmaxpu=1.5 vminpu=0.93 daily="RES_3_SA"
 
New "Load.BT_6795_M1" bus1="UC14821.3.4" phases=1 conn=delta model=2 kv=0.22 kw = 328.4239107266076 pf=0.92 status=variable vmaxpu=1.5 vminpu=0.93 daily="RES_3_SA" 
New "Load.BT_6795_M2" bus1="UC14821.3.4" phases=1 conn=delta model=3 kv=0.22 kw = 328.4239107266076 pf=0.92 status=variable vmaxpu=1.5 vminpu=0.93 daily="RES_3_SA"
 
New "Load.BT_768_M1" bus1="UC12804.1.4" phases=1 conn=delta model=2 kv=0.22 kw = 332.15600062122815 pf=0.92 status=variable vmaxpu=1.5 vminpu=0.93 daily="RES_3_SA" 
New "Load.BT_768_M2" bus1="UC12804.1.4" phases=1 conn=delta model=3 kv=0.22 kw = 332.15600062122815 pf=0.92 status=variable vmaxpu=1.5 vminpu=0.93 daily="RES_3_SA"
 
New "Load.BT_539_M1" bus1="UC11814.2.4" phases=1 conn=delta model=2 kv=0.22 kw = 832.0825620120789 pf=0.92 status=variable vmaxpu=1.5 vminpu=0.93 daily="RES_6_SA" 
New "Load.BT_539_M2" bus1="UC11814.2.4" phases=1 conn=delta model=3 kv=0.22 kw = 832.0825620120789 pf=0.92 status=variable vmaxpu=1.5 vminpu=0.93 daily="RES_6_SA"
 
New "Load.BT_6846_M1" bus1="UC15821.1.2.3.4" phases=3 conn=delta model=2 kv=0.38 kw = 1105.685332520729 pf=0.92 status=variable vmaxpu=1.5 vminpu=0.93 daily="RES_2_SA" 
New "Load.BT_6846_M2" bus1="UC15821.1.2.3.4" phases=3 conn=delta model=3 kv=0.38 kw = 1105.685332520729 pf=0.92 status=variable vmaxpu=1.5 vminpu=0.93 daily="RES_2_SA"
 
New "Load.BT_826_M1" bus1="UC7495.2.4" phases=1 conn=delta model=2 kv=0.22 kw = 741.0819157121936 pf=0.92 status=variable vmaxpu=1.5 vminpu=0.93 daily="COM_1_SA" 
New "Load.BT_826_M2" bus1="UC7495.2.4" phases=1 conn=delta model=3 kv=0.22 kw = 741.0819157121936 pf=0.92 status=variable vmaxpu=1.5 vminpu=0.93 daily="COM_1_SA"
 
New "Load.BT_84_M1" bus1="UC5102.3.4" phases=1 conn=delta model=2 kv=0.22 kw = 753.2536877161978 pf=0.92 status=variable vmaxpu=1.5 vminpu=0.93 daily="RES_6_SA" 
New "Load.BT_84_M2" bus1="UC5102.3.4" phases=1 conn=delta model=3 kv=0.22 kw = 753.2536877161978 pf=0.92 status=variable vmaxpu=1.5 vminpu=0.93 daily="RES_6_SA"
 
New "Load.BT_2347_M1" bus1="UC1753.3.4" phases=1 conn=delta model=2 kv=0.22 kw = 1487.5286155233828 pf=0.92 status=variable vmaxpu=1.5 vminpu=0.93 daily="RES_2_SA" 
New "Load.BT_2347_M2" bus1="UC1753.3.4" phases=1 conn=delta model=3 kv=0.22 kw = 1487.5286155233828 pf=0.92 status=variable vmaxpu=1.5 vminpu=0.93 daily="RES_2_SA"
 
New "Load.BT_8197_M1" bus1="UC11184.3.4" phases=1 conn=delta model=2 kv=0.22 kw = 138.53317248736442 pf=0.92 status=variable vmaxpu=1.5 vminpu=0.93 daily="RES_9_SA" 
New "Load.BT_8197_M2" bus1="UC11184.3.4" phases=1 conn=delta model=3 kv=0.22 kw = 138.53317248736442 pf=0.92 status=variable vmaxpu=1.5 vminpu=0.93 daily="RES_9_SA"
 
New "Load.BT_2623_M1" bus1="UC15510.1.2.3.4" phases=3 conn=delta model=2 kv=0.38 kw = 11.737607299262743 pf=0.92 status=variable vmaxpu=1.5 vminpu=0.93 daily="COM_12_SA" 
New "Load.BT_2623_M2" bus1="UC15510.1.2.3.4" phases=3 conn=delta model=3 kv=0.38 kw = 11.737607299262743 pf=0.92 status=variable vmaxpu=1.5 vminpu=0.93 daily="COM_12_SA"
 
New "Load.BT_8426_M1" bus1="UC15793.1.2.3.4" phases=3 conn=delta model=2 kv=0.38 kw = 126.56679908792519 pf=0.92 status=variable vmaxpu=1.5 vminpu=0.93 daily="COM_1_SA" 
New "Load.BT_8426_M2" bus1="UC15793.1.2.3.4" phases=3 conn=delta model=3 kv=0.38 kw = 126.56679908792519 pf=0.92 status=variable vmaxpu=1.5 vminpu=0.93 daily="COM_1_SA"
 
New "Load.BT_7702_M1" bus1="UC15796.3.4" phases=1 conn=delta model=2 kv=0.22 kw = 129.49467858350877 pf=0.92 status=variable vmaxpu=1.5 vminpu=0.93 daily="RES_2_SA" 
New "Load.BT_7702_M2" bus1="UC15796.3.4" phases=1 conn=delta model=3 kv=0.22 kw = 129.49467858350877 pf=0.92 status=variable vmaxpu=1.5 vminpu=0.93 daily="RES_2_SA"
 
New "Load.BT_236_M1" bus1="UC15798.1.2.3.4" phases=3 conn=delta model=2 kv=0.38 kw = 65.94229437979757 pf=0.92 status=variable vmaxpu=1.5 vminpu=0.93 daily="RES_12_SA" 
New "Load.BT_236_M2" bus1="UC15798.1.2.3.4" phases=3 conn=delta model=3 kv=0.38 kw = 65.94229437979757 pf=0.92 status=variable vmaxpu=1.5 vminpu=0.93 daily="RES_12_SA"
 
New "Load.BT_146_M1" bus1="UC10578.1.4" phases=1 conn=delta model=2 kv=0.22 kw = 784.5015727070331 pf=0.92 status=variable vmaxpu=1.5 vminpu=0.93 daily="RES_7_SA" 
New "Load.BT_146_M2" bus1="UC10578.1.4" phases=1 conn=delta model=3 kv=0.22 kw = 784.5015727070331 pf=0.92 status=variable vmaxpu=1.5 vminpu=0.93 daily="RES_7_SA"
 
New "Load.BT_3019_M1" bus1="UC9738.1.4" phases=1 conn=delta model=2 kv=0.22 kw = 1935.686802154415 pf=0.92 status=variable vmaxpu=1.5 vminpu=0.93 daily="RES_6_SA" 
New "Load.BT_3019_M2" bus1="UC9738.1.4" phases=1 conn=delta model=3 kv=0.22 kw = 1935.686802154415 pf=0.92 status=variable vmaxpu=1.5 vminpu=0.93 daily="RES_6_SA"
 
New "Load.BT_2092_M1" bus1="UC6242.2.4" phases=1 conn=delta model=2 kv=0.22 kw = 156.05768957499774 pf=0.92 status=variable vmaxpu=1.5 vminpu=0.93 daily="RES_2_SA" 
New "Load.BT_2092_M2" bus1="UC6242.2.4" phases=1 conn=delta model=3 kv=0.22 kw = 156.05768957499774 pf=0.92 status=variable vmaxpu=1.5 vminpu=0.93 daily="RES_2_SA"
 
New "Load.BT_539_M1" bus1="UC11814.2.4" phases=1 conn=delta model=2 kv=0.22 kw = 112.8055833111396 pf=0.92 status=variable vmaxpu=1.5 vminpu=0.93 daily="RES_9_SA" 
New "Load.BT_539_M2" bus1="UC11814.2.4" phases=1 conn=delta model=3 kv=0.22 kw = 112.8055833111396 pf=0.92 status=variable vmaxpu=1.5 vminpu=0.93 daily="RES_9_SA"
 
New "Load.BT_1424_M1" bus1="UC6619.3.4" phases=1 conn=delta model=2 kv=0.22 kw = 365.24140113297346 pf=0.92 status=variable vmaxpu=1.5 vminpu=0.93 daily="RES_2_SA" 
New "Load.BT_1424_M2" bus1="UC6619.3.4" phases=1 conn=delta model=3 kv=0.22 kw = 365.24140113297346 pf=0.92 status=variable vmaxpu=1.5 vminpu=0.93 daily="RES_2_SA"
 
New "Load.BT_6443_M1" bus1="UC15805.1.4" phases=1 conn=delta model=2 kv=0.22 kw = 13.28150549574449 pf=0.92 status=variable vmaxpu=1.5 vminpu=0.93 daily="RES_2_SA" 
New "Load.BT_6443_M2" bus1="UC15805.1.4" phases=1 conn=delta model=3 kv=0.22 kw = 13.28150549574449 pf=0.92 status=variable vmaxpu=1.5 vminpu=0.93 daily="RES_2_SA"
 
New "Load.BT_8141_M1" bus1="UC15807.1.2.3.4" phases=3 conn=delta model=2 kv=0.38 kw = 32058.03792687579 pf=0.92 status=variable vmaxpu=1.5 vminpu=0.93 daily="COM_1_SA" 
New "Load.BT_8141_M2" bus1="UC15807.1.2.3.4" phases=3 conn=delta model=3 kv=0.38 kw = 32058.03792687579 pf=0.92 status=variable vmaxpu=1.5 vminpu=0.93 daily="COM_1_SA"
 
New "Load.BT_296_M1" bus1="UC14335.2.4" phases=1 conn=delta model=2 kv=0.22 kw = 381.8432830026541 pf=0.92 status=variable vmaxpu=1.5 vminpu=0.93 daily="RES_2_SA" 
New "Load.BT_296_M2" bus1="UC14335.2.4" phases=1 conn=delta model=3 kv=0.22 kw = 381.8432830026541 pf=0.92 status=variable vmaxpu=1.5 vminpu=0.93 daily="RES_2_SA"
 
New "Load.BT_121_M1" bus1="UC12650.2.3.4" phases=2 conn=delta model=2 kv=0.38 kw = 519.0793821347263 pf=0.92 status=variable vmaxpu=1.5 vminpu=0.93 daily="RES_11_SA" 
New "Load.BT_121_M2" bus1="UC12650.2.3.4" phases=2 conn=delta model=3 kv=0.38 kw = 519.0793821347263 pf=0.92 status=variable vmaxpu=1.5 vminpu=0.93 daily="RES_11_SA"
 
New "Load.BT_12_M1" bus1="UC10383.2.4" phases=1 conn=delta model=2 kv=0.22 kw = 338.41674993341877 pf=0.92 status=variable vmaxpu=1.5 vminpu=0.93 daily="RES_9_SA" 
New "Load.BT_12_M2" bus1="UC10383.2.4" phases=1 conn=delta model=3 kv=0.22 kw = 338.41674993341877 pf=0.92 status=variable vmaxpu=1.5 vminpu=0.93 daily="RES_9_SA"
 
New "Load.BT_8263_M1" bus1="UC14653.1.2.3.4" phases=3 conn=delta model=2 kv=0.38 kw = 707.2401676483942 pf=0.92 status=variable vmaxpu=1.5 vminpu=0.93 daily="RES_2_SA" 
New "Load.BT_8263_M2" bus1="UC14653.1.2.3.4" phases=3 conn=delta model=3 kv=0.38 kw = 707.2401676483942 pf=0.92 status=variable vmaxpu=1.5 vminpu=0.93 daily="RES_2_SA"
 
New "Load.BT_2343_M1" bus1="UC5977.2.4" phases=1 conn=delta model=2 kv=0.22 kw = 142.77618407925328 pf=0.92 status=variable vmaxpu=1.5 vminpu=0.93 daily="RES_2_SA" 
New "Load.BT_2343_M2" bus1="UC5977.2.4" phases=1 conn=delta model=3 kv=0.22 kw = 142.77618407925328 pf=0.92 status=variable vmaxpu=1.5 vminpu=0.93 daily="RES_2_SA"
 
New "Load.BT_3034_M1" bus1="UC14783.1.2.3.4" phases=3 conn=delta model=2 kv=0.38 kw = 428.32855223775977 pf=0.92 status=variable vmaxpu=1.5 vminpu=0.93 daily="RES_2_SA" 
New "Load.BT_3034_M2" bus1="UC14783.1.2.3.4" phases=3 conn=delta model=3 kv=0.38 kw = 428.32855223775977 pf=0.92 status=variable vmaxpu=1.5 vminpu=0.93 daily="RES_2_SA"
 
New "Load.BT_684_M1" bus1="UC6236.1.2.3.4" phases=3 conn=delta model=2 kv=0.38 kw = 333.0705239155926 pf=0.92 status=variable vmaxpu=1.5 vminpu=0.93 daily="COM_1_SA" 
New "Load.BT_684_M2" bus1="UC6236.1.2.3.4" phases=3 conn=delta model=3 kv=0.38 kw = 333.0705239155926 pf=0.92 status=variable vmaxpu=1.5 vminpu=0.93 daily="COM_1_SA"
 
New "Load.BT_7327_M1" bus1="UC13253.1.2.4" phases=2 conn=delta model=2 kv=0.38 kw = 292.1931209063788 pf=0.92 status=variable vmaxpu=1.5 vminpu=0.93 daily="RES_2_SA" 
New "Load.BT_7327_M2" bus1="UC13253.1.2.4" phases=2 conn=delta model=3 kv=0.38 kw = 292.1931209063788 pf=0.92 status=variable vmaxpu=1.5 vminpu=0.93 daily="RES_2_SA"
 
New "Load.BT_1829_M1" bus1="UC15079.3.4" phases=1 conn=delta model=2 kv=0.22 kw = 400.3661602115378 pf=0.92 status=variable vmaxpu=1.5 vminpu=0.93 daily="RES_11_SA" 
New "Load.BT_1829_M2" bus1="UC15079.3.4" phases=1 conn=delta model=3 kv=0.22 kw = 400.3661602115378 pf=0.92 status=variable vmaxpu=1.5 vminpu=0.93 daily="RES_11_SA"
 
New "Load.BT_1959_M1" bus1="UC2860.2.4" phases=1 conn=delta model=2 kv=0.22 kw = 488.09532696861 pf=0.92 status=variable vmaxpu=1.5 vminpu=0.93 daily="RES_2_SA" 
New "Load.BT_1959_M2" bus1="UC2860.2.4" phases=1 conn=delta model=3 kv=0.22 kw = 488.09532696861 pf=0.92 status=variable vmaxpu=1.5 vminpu=0.93 daily="RES_2_SA"
 
New "Load.BT_3034_M1" bus1="UC14783.1.2.3.4" phases=3 conn=delta model=2 kv=0.38 kw = 88.94832105367959 pf=0.92 status=variable vmaxpu=1.5 vminpu=0.93 daily="RES_5_SA" 
New "Load.BT_3034_M2" bus1="UC14783.1.2.3.4" phases=3 conn=delta model=3 kv=0.38 kw = 88.94832105367959 pf=0.92 status=variable vmaxpu=1.5 vminpu=0.93 daily="RES_5_SA"
 
New "Load.BT_901_M1" bus1="UC5377.3.4" phases=1 conn=delta model=2 kv=0.22 kw = 80.30908001227273 pf=0.92 status=variable vmaxpu=1.5 vminpu=0.93 daily="COM_5_SA" 
New "Load.BT_901_M2" bus1="UC5377.3.4" phases=1 conn=delta model=3 kv=0.22 kw = 80.30908001227273 pf=0.92 status=variable vmaxpu=1.5 vminpu=0.93 daily="COM_5_SA"
 
New "Load.BT_1124_M1" bus1="UC15362.3.1.4" phases=2 conn=delta model=2 kv=0.38 kw = 593.402293244666 pf=0.92 status=variable vmaxpu=1.5 vminpu=0.93 daily="RES_3_SA" 
New "Load.BT_1124_M2" bus1="UC15362.3.1.4" phases=2 conn=delta model=3 kv=0.38 kw = 593.402293244666 pf=0.92 status=variable vmaxpu=1.5 vminpu=0.93 daily="RES_3_SA"
 
New "Load.BT_1124_M1" bus1="UC15362.1.2.4" phases=2 conn=delta model=2 kv=0.38 kw = 1074.8418896507158 pf=0.92 status=variable vmaxpu=1.5 vminpu=0.93 daily="RES_3_SA" 
New "Load.BT_1124_M2" bus1="UC15362.1.2.4" phases=2 conn=delta model=3 kv=0.38 kw = 1074.8418896507158 pf=0.92 status=variable vmaxpu=1.5 vminpu=0.93 daily="RES_3_SA"
 
New "Load.BT_2344_M1" bus1="UC2835.3.4" phases=1 conn=delta model=2 kv=0.22 kw = 320.9597309373665 pf=0.92 status=variable vmaxpu=1.5 vminpu=0.93 daily="RES_3_SA" 
New "Load.BT_2344_M2" bus1="UC2835.3.4" phases=1 conn=delta model=3 kv=0.22 kw = 320.9597309373665 pf=0.92 status=variable vmaxpu=1.5 vminpu=0.93 daily="RES_3_SA"
 
New "Load.BT_7439_M1" bus1="UC16096.2.4" phases=1 conn=delta model=2 kv=0.22 kw = 18.56808456111321 pf=0.92 status=variable vmaxpu=1.5 vminpu=0.93 daily="RES_7_SA" 
New "Load.BT_7439_M2" bus1="UC16096.2.4" phases=1 conn=delta model=3 kv=0.22 kw = 18.56808456111321 pf=0.92 status=variable vmaxpu=1.5 vminpu=0.93 daily="RES_7_SA"
 
New "Load.BT_6954_M1" bus1="UC16099.3.4" phases=1 conn=delta model=2 kv=0.22 kw = 0.0 pf=0.92 status=variable vmaxpu=1.5 vminpu=0.93 daily="COM_1_SA" 
New "Load.BT_6954_M2" bus1="UC16099.3.4" phases=1 conn=delta model=3 kv=0.22 kw = 0.0 pf=0.92 status=variable vmaxpu=1.5 vminpu=0.93 daily="COM_1_SA"
 
New "Load.BT_1112_M1" bus1="UC8981.3.4" phases=1 conn=delta model=2 kv=0.22 kw = 171.7547821902972 pf=0.92 status=variable vmaxpu=1.5 vminpu=0.93 daily="RES_7_SA" 
New "Load.BT_1112_M2" bus1="UC8981.3.4" phases=1 conn=delta model=3 kv=0.22 kw = 171.7547821902972 pf=0.92 status=variable vmaxpu=1.5 vminpu=0.93 daily="RES_7_SA"
 
New "Load.BT_2626_M1" bus1="UC16100.3.4" phases=1 conn=delta model=2 kv=0.22 kw = 272.4425623072995 pf=0.92 status=variable vmaxpu=1.5 vminpu=0.93 daily="RES_3_SA" 
New "Load.BT_2626_M2" bus1="UC16100.3.4" phases=1 conn=delta model=3 kv=0.22 kw = 272.4425623072995 pf=0.92 status=variable vmaxpu=1.5 vminpu=0.93 daily="RES_3_SA"
 
New "Load.BT_1516_M1" bus1="UC16103.3.4" phases=1 conn=delta model=2 kv=0.22 kw = 399.3336187243979 pf=0.92 status=variable vmaxpu=1.5 vminpu=0.93 daily="RES_3_SA" 
New "Load.BT_1516_M2" bus1="UC16103.3.4" phases=1 conn=delta model=3 kv=0.22 kw = 399.3336187243979 pf=0.92 status=variable vmaxpu=1.5 vminpu=0.93 daily="RES_3_SA"
 
New "Load.BT_2623_M1" bus1="UC15510.1.2.4" phases=2 conn=delta model=2 kv=0.38 kw = 623.2590124016303 pf=0.92 status=variable vmaxpu=1.5 vminpu=0.93 daily="RES_3_SA" 
New "Load.BT_2623_M2" bus1="UC15510.1.2.4" phases=2 conn=delta model=3 kv=0.38 kw = 623.2590124016303 pf=0.92 status=variable vmaxpu=1.5 vminpu=0.93 daily="RES_3_SA"
 
New "Load.BT_1124_M1" bus1="UC15362.1.2.3.4" phases=3 conn=delta model=2 kv=0.38 kw = 0.0 pf=0.92 status=variable vmaxpu=1.5 vminpu=0.93 daily="COM_5_SA" 
New "Load.BT_1124_M2" bus1="UC15362.1.2.3.4" phases=3 conn=delta model=3 kv=0.38 kw = 0.0 pf=0.92 status=variable vmaxpu=1.5 vminpu=0.93 daily="COM_5_SA"
 
New "Load.BT_2214_M1" bus1="UC11074.3.4" phases=1 conn=delta model=2 kv=0.22 kw = 142.48385163467745 pf=0.92 status=variable vmaxpu=1.5 vminpu=0.93 daily="COM_5_SA" 
New "Load.BT_2214_M2" bus1="UC11074.3.4" phases=1 conn=delta model=3 kv=0.22 kw = 142.48385163467745 pf=0.92 status=variable vmaxpu=1.5 vminpu=0.93 daily="COM_5_SA"
 
New "Load.BT_8544_M1" bus1="UC16080.2.4" phases=1 conn=delta model=2 kv=0.22 kw = 250.66914157502833 pf=0.92 status=variable vmaxpu=1.5 vminpu=0.93 daily="RES_7_SA" 
New "Load.BT_8544_M2" bus1="UC16080.2.4" phases=1 conn=delta model=3 kv=0.22 kw = 250.66914157502833 pf=0.92 status=variable vmaxpu=1.5 vminpu=0.93 daily="RES_7_SA"
 
New "Load.BT_387_M1" bus1="UC15581.1.2.3.4" phases=3 conn=delta model=2 kv=0.38 kw = 298.5671915696433 pf=0.92 status=variable vmaxpu=1.5 vminpu=0.93 daily="RES_3_SA" 
New "Load.BT_387_M2" bus1="UC15581.1.2.3.4" phases=3 conn=delta model=3 kv=0.38 kw = 298.5671915696433 pf=0.92 status=variable vmaxpu=1.5 vminpu=0.93 daily="RES_3_SA"
 
New "Load.BT_1113_M1" bus1="UC6951.3.4" phases=1 conn=delta model=2 kv=0.22 kw = 23.210105701391516 pf=0.92 status=variable vmaxpu=1.5 vminpu=0.93 daily="RES_7_SA" 
New "Load.BT_1113_M2" bus1="UC6951.3.4" phases=1 conn=delta model=3 kv=0.22 kw = 23.210105701391516 pf=0.92 status=variable vmaxpu=1.5 vminpu=0.93 daily="RES_7_SA"
 
New "Load.BT_539_M1" bus1="UC11814.1.2.4" phases=2 conn=delta model=2 kv=0.38 kw = 880.7732151304477 pf=0.92 status=variable vmaxpu=1.5 vminpu=0.93 daily="RES_3_SA" 
New "Load.BT_539_M2" bus1="UC11814.1.2.4" phases=2 conn=delta model=3 kv=0.38 kw = 880.7732151304477 pf=0.92 status=variable vmaxpu=1.5 vminpu=0.93 daily="RES_3_SA"
 
New "Load.BT_1858_M1" bus1="UC5368.1.2.3.4" phases=3 conn=delta model=2 kv=0.38 kw = 231.38957346647354 pf=0.92 status=variable vmaxpu=1.5 vminpu=0.93 daily="RES_3_SA" 
New "Load.BT_1858_M2" bus1="UC5368.1.2.3.4" phases=3 conn=delta model=3 kv=0.38 kw = 231.38957346647354 pf=0.92 status=variable vmaxpu=1.5 vminpu=0.93 daily="RES_3_SA"
 
New "Load.BT_539_M1" bus1="UC11814.3.1.4" phases=2 conn=delta model=2 kv=0.38 kw = 129.97659192779247 pf=0.92 status=variable vmaxpu=1.5 vminpu=0.93 daily="RES_7_SA" 
New "Load.BT_539_M2" bus1="UC11814.3.1.4" phases=2 conn=delta model=3 kv=0.38 kw = 129.97659192779247 pf=0.92 status=variable vmaxpu=1.5 vminpu=0.93 daily="RES_7_SA"
 
New "Load.BT_7327_M1" bus1="UC13253.1.2.4" phases=2 conn=delta model=2 kv=0.38 kw = 488.9037761952908 pf=0.92 status=variable vmaxpu=1.5 vminpu=0.93 daily="RES_3_SA" 
New "Load.BT_7327_M2" bus1="UC13253.1.2.4" phases=2 conn=delta model=3 kv=0.38 kw = 488.9037761952908 pf=0.92 status=variable vmaxpu=1.5 vminpu=0.93 daily="RES_3_SA"
 
New "Load.BT_2623_M1" bus1="UC15510.3.1.4" phases=2 conn=delta model=2 kv=0.38 kw = 13.926063420834907 pf=0.92 status=variable vmaxpu=1.5 vminpu=0.93 daily="RES_7_SA" 
New "Load.BT_2623_M2" bus1="UC15510.3.1.4" phases=2 conn=delta model=3 kv=0.38 kw = 13.926063420834907 pf=0.92 status=variable vmaxpu=1.5 vminpu=0.93 daily="RES_7_SA"
 
New "Load.BT_2215_M1" bus1="UC12303.2.4" phases=1 conn=delta model=2 kv=0.22 kw = 129.97659192779247 pf=0.92 status=variable vmaxpu=1.5 vminpu=0.93 daily="RES_7_SA" 
New "Load.BT_2215_M2" bus1="UC12303.2.4" phases=1 conn=delta model=3 kv=0.22 kw = 129.97659192779247 pf=0.92 status=variable vmaxpu=1.5 vminpu=0.93 daily="RES_7_SA"
 
New "Load.BT_358_M1" bus1="UC12262.1.4" phases=1 conn=delta model=2 kv=0.22 kw = 4.6420211402783025 pf=0.92 status=variable vmaxpu=1.5 vminpu=0.93 daily="RES_7_SA" 
New "Load.BT_358_M2" bus1="UC12262.1.4" phases=1 conn=delta model=3 kv=0.22 kw = 4.6420211402783025 pf=0.92 status=variable vmaxpu=1.5 vminpu=0.93 daily="RES_7_SA"
 
New "Load.BT_555_M1" bus1="UC15769.2.4" phases=1 conn=delta model=2 kv=0.22 kw = 444.9304341074405 pf=0.92 status=variable vmaxpu=1.5 vminpu=0.93 daily="RES_2_SA" 
New "Load.BT_555_M2" bus1="UC15769.2.4" phases=1 conn=delta model=3 kv=0.22 kw = 444.9304341074405 pf=0.92 status=variable vmaxpu=1.5 vminpu=0.93 daily="RES_2_SA"
 
New "Load.BT_1430_M1" bus1="UC9154.3.4" phases=1 conn=delta model=2 kv=0.22 kw = 859.321951702229 pf=0.92 status=variable vmaxpu=1.5 vminpu=0.93 daily="COM_1_SA" 
New "Load.BT_1430_M2" bus1="UC9154.3.4" phases=1 conn=delta model=3 kv=0.22 kw = 859.321951702229 pf=0.92 status=variable vmaxpu=1.5 vminpu=0.93 daily="COM_1_SA"
 
New "Load.BT_2920_M1" bus1="UC15771.1.2.3.4" phases=3 conn=delta model=2 kv=0.38 kw = 1050.8375029536946 pf=0.92 status=variable vmaxpu=1.5 vminpu=0.93 daily="COM_1_SA" 
New "Load.BT_2920_M2" bus1="UC15771.1.2.3.4" phases=3 conn=delta model=3 kv=0.38 kw = 1050.8375029536946 pf=0.92 status=variable vmaxpu=1.5 vminpu=0.93 daily="COM_1_SA"
 
New "Load.BT_7655_M1" bus1="UC15774.1.4" phases=1 conn=delta model=2 kv=0.22 kw = 411.72667036807917 pf=0.92 status=variable vmaxpu=1.5 vminpu=0.93 daily="RES_2_SA" 
New "Load.BT_7655_M2" bus1="UC15774.1.4" phases=1 conn=delta model=3 kv=0.22 kw = 411.72667036807917 pf=0.92 status=variable vmaxpu=1.5 vminpu=0.93 daily="RES_2_SA"
 
New "Load.BT_1880_M1" bus1="UC5019.1.4" phases=1 conn=delta model=2 kv=0.22 kw = 511.33796158616286 pf=0.92 status=variable vmaxpu=1.5 vminpu=0.93 daily="RES_2_SA" 
New "Load.BT_1880_M2" bus1="UC5019.1.4" phases=1 conn=delta model=3 kv=0.22 kw = 511.33796158616286 pf=0.92 status=variable vmaxpu=1.5 vminpu=0.93 daily="RES_2_SA"
 
New "Load.BT_1209_M1" bus1="UC15445.3.4" phases=1 conn=delta model=2 kv=0.22 kw = 328.71726101967613 pf=0.92 status=variable vmaxpu=1.5 vminpu=0.93 daily="RES_2_SA" 
New "Load.BT_1209_M2" bus1="UC15445.3.4" phases=1 conn=delta model=3 kv=0.22 kw = 328.71726101967613 pf=0.92 status=variable vmaxpu=1.5 vminpu=0.93 daily="RES_2_SA"
 
New "Load.BT_2215_M1" bus1="UC7160.1.4" phases=1 conn=delta model=2 kv=0.22 kw = 186.51949339273187 pf=0.92 status=variable vmaxpu=1.5 vminpu=0.93 daily="COM_1_SA" 
New "Load.BT_2215_M2" bus1="UC7160.1.4" phases=1 conn=delta model=3 kv=0.22 kw = 186.51949339273187 pf=0.92 status=variable vmaxpu=1.5 vminpu=0.93 daily="COM_1_SA"
 
New "Load.BT_628_M1" bus1="UC7914.1.4" phases=1 conn=delta model=2 kv=0.22 kw = 64.94875216354056 pf=0.92 status=variable vmaxpu=1.5 vminpu=0.93 daily="COM_1_SA" 
New "Load.BT_628_M2" bus1="UC7914.1.4" phases=1 conn=delta model=3 kv=0.22 kw = 64.94875216354056 pf=0.92 status=variable vmaxpu=1.5 vminpu=0.93 daily="COM_1_SA"
 
New "Load.BT_1234_M1" bus1="UC15448.1.4" phases=1 conn=delta model=2 kv=0.22 kw = 16.601881869680614 pf=0.92 status=variable vmaxpu=1.5 vminpu=0.93 daily="RES_2_SA" 
New "Load.BT_1234_M2" bus1="UC15448.1.4" phases=1 conn=delta model=3 kv=0.22 kw = 16.601881869680614 pf=0.92 status=variable vmaxpu=1.5 vminpu=0.93 daily="RES_2_SA"
 
New "Load.BT_1380_M1" bus1="UC10064.3.4" phases=1 conn=delta model=2 kv=0.22 kw = 358.46737600335365 pf=0.92 status=variable vmaxpu=1.5 vminpu=0.93 daily="RES_11_SA" 
New "Load.BT_1380_M2" bus1="UC10064.3.4" phases=1 conn=delta model=3 kv=0.22 kw = 358.46737600335365 pf=0.92 status=variable vmaxpu=1.5 vminpu=0.93 daily="RES_11_SA"
 
New "Load.BT_785_M1" bus1="UC9638.3.4" phases=1 conn=delta model=2 kv=0.22 kw = 879.653602459506 pf=0.92 status=variable vmaxpu=1.5 vminpu=0.93 daily="RES_1_SA" 
New "Load.BT_785_M2" bus1="UC9638.3.4" phases=1 conn=delta model=3 kv=0.22 kw = 879.653602459506 pf=0.92 status=variable vmaxpu=1.5 vminpu=0.93 daily="RES_1_SA"
 
New "Load.BT_7701_M1" bus1="UC15452.1.2.3.4" phases=3 conn=delta model=2 kv=0.38 kw = 1138.8890962600901 pf=0.92 status=variable vmaxpu=1.5 vminpu=0.93 daily="RES_2_SA" 
New "Load.BT_7701_M2" bus1="UC15452.1.2.3.4" phases=3 conn=delta model=3 kv=0.38 kw = 1138.8890962600901 pf=0.92 status=variable vmaxpu=1.5 vminpu=0.93 daily="RES_2_SA"
 
New "Load.BT_387_M1" bus1="UC15581.1.4" phases=1 conn=delta model=2 kv=0.22 kw = 250.05002293957625 pf=0.92 status=variable vmaxpu=1.5 vminpu=0.93 daily="RES_3_SA" 
New "Load.BT_387_M2" bus1="UC15581.1.4" phases=1 conn=delta model=3 kv=0.22 kw = 250.05002293957625 pf=0.92 status=variable vmaxpu=1.5 vminpu=0.93 daily="RES_3_SA"
 
New "Load.BT_3034_M1" bus1="UC14783.1.2.3.4" phases=3 conn=delta model=2 kv=0.38 kw = 440.38660756522387 pf=0.92 status=variable vmaxpu=1.5 vminpu=0.93 daily="RES_3_SA" 
New "Load.BT_3034_M2" bus1="UC14783.1.2.3.4" phases=3 conn=delta model=3 kv=0.38 kw = 440.38660756522387 pf=0.92 status=variable vmaxpu=1.5 vminpu=0.93 daily="RES_3_SA"
 
New "Load.BT_1124_M1" bus1="UC8867.1.4" phases=1 conn=delta model=2 kv=0.22 kw = 895.7015747089298 pf=0.92 status=variable vmaxpu=1.5 vminpu=0.93 daily="RES_3_SA" 
New "Load.BT_1124_M2" bus1="UC8867.1.4" phases=1 conn=delta model=3 kv=0.22 kw = 895.7015747089298 pf=0.92 status=variable vmaxpu=1.5 vminpu=0.93 daily="RES_3_SA"
 
New "Load.BT_121_M1" bus1="UC12650.2.3.4" phases=2 conn=delta model=2 kv=0.38 kw = 376.0037123625425 pf=0.92 status=variable vmaxpu=1.5 vminpu=0.93 daily="RES_7_SA" 
New "Load.BT_121_M2" bus1="UC12650.2.3.4" phases=2 conn=delta model=3 kv=0.38 kw = 376.0037123625425 pf=0.92 status=variable vmaxpu=1.5 vminpu=0.93 daily="RES_7_SA"
 
New "Load.BT_239_M1" bus1="UC16074.1.2.3.4" phases=3 conn=delta model=2 kv=0.38 kw = 14752.951353434997 pf=0.92 status=variable vmaxpu=1.5 vminpu=0.93 daily="RES_3_SA" 
New "Load.BT_239_M2" bus1="UC16074.1.2.3.4" phases=3 conn=delta model=3 kv=0.38 kw = 14752.951353434997 pf=0.92 status=variable vmaxpu=1.5 vminpu=0.93 daily="RES_3_SA"
 
New "Load.BT_8152_M1" bus1="UC16078.1.2.4" phases=2 conn=delta model=2 kv=0.38 kw = 171.7547821902972 pf=0.92 status=variable vmaxpu=1.5 vminpu=0.93 daily="RES_7_SA" 
New "Load.BT_8152_M2" bus1="UC16078.1.2.4" phases=2 conn=delta model=3 kv=0.38 kw = 171.7547821902972 pf=0.92 status=variable vmaxpu=1.5 vminpu=0.93 daily="RES_7_SA"
 
New "Load.BT_8398_M1" bus1="UC15580.2.4" phases=1 conn=delta model=2 kv=0.22 kw = 322.0765082718039 pf=0.92 status=variable vmaxpu=1.5 vminpu=0.93 daily="RES_2_SA" 
New "Load.BT_8398_M2" bus1="UC15580.2.4" phases=1 conn=delta model=3 kv=0.22 kw = 322.0765082718039 pf=0.92 status=variable vmaxpu=1.5 vminpu=0.93 daily="RES_2_SA"
 
New "Load.BT_2466_M1" bus1="UC15707.1.4" phases=1 conn=delta model=2 kv=0.22 kw = 295.5134972803149 pf=0.92 status=variable vmaxpu=1.5 vminpu=0.93 daily="RES_2_SA" 
New "Load.BT_2466_M2" bus1="UC15707.1.4" phases=1 conn=delta model=3 kv=0.22 kw = 295.5134972803149 pf=0.92 status=variable vmaxpu=1.5 vminpu=0.93 daily="RES_2_SA"
 
New "Load.BT_2214_M1" bus1="UC11074.1.4" phases=1 conn=delta model=2 kv=0.22 kw = 1.665352619577963 pf=0.92 status=variable vmaxpu=1.5 vminpu=0.93 daily="COM_1_SA" 
New "Load.BT_2214_M2" bus1="UC11074.1.4" phases=1 conn=delta model=3 kv=0.22 kw = 1.665352619577963 pf=0.92 status=variable vmaxpu=1.5 vminpu=0.93 daily="COM_1_SA"
 
New "Load.BT_1112_M1" bus1="UC8981.2.4" phases=1 conn=delta model=2 kv=0.22 kw = 660.7548984132884 pf=0.92 status=variable vmaxpu=1.5 vminpu=0.93 daily="RES_2_SA" 
New "Load.BT_1112_M2" bus1="UC8981.2.4" phases=1 conn=delta model=3 kv=0.22 kw = 660.7548984132884 pf=0.92 status=variable vmaxpu=1.5 vminpu=0.93 daily="RES_2_SA"
 
New "Load.BT_6942_M1" bus1="UC15761.1.2.3.4" phases=3 conn=delta model=2 kv=0.38 kw = 693.9586621526496 pf=0.92 status=variable vmaxpu=1.5 vminpu=0.93 daily="RES_2_SA" 
New "Load.BT_6942_M2" bus1="UC15761.1.2.3.4" phases=3 conn=delta model=3 kv=0.38 kw = 693.9586621526496 pf=0.92 status=variable vmaxpu=1.5 vminpu=0.93 daily="RES_2_SA"
 
New "Load.BT_2085_M1" bus1="UC15760.1.2.3.4" phases=3 conn=delta model=2 kv=0.38 kw = 456.30661776436193 pf=0.92 status=variable vmaxpu=1.5 vminpu=0.93 daily="COM_1_SA" 
New "Load.BT_2085_M2" bus1="UC15760.1.2.3.4" phases=3 conn=delta model=3 kv=0.38 kw = 456.30661776436193 pf=0.92 status=variable vmaxpu=1.5 vminpu=0.93 daily="COM_1_SA"
 
New "Load.BT_702_M1" bus1="UC8051.1.2.4" phases=2 conn=delta model=2 kv=0.38 kw = 690.6382857787135 pf=0.92 status=variable vmaxpu=1.5 vminpu=0.93 daily="RES_2_SA" 
New "Load.BT_702_M2" bus1="UC8051.1.2.4" phases=2 conn=delta model=3 kv=0.38 kw = 690.6382857787135 pf=0.92 status=variable vmaxpu=1.5 vminpu=0.93 daily="RES_2_SA"
 
New "Load.BT_7425_M1" bus1="UC15763.3.4" phases=1 conn=delta model=2 kv=0.22 kw = 0.0 pf=0.92 status=variable vmaxpu=1.5 vminpu=0.93 daily="RES_2_SA" 
New "Load.BT_7425_M2" bus1="UC15763.3.4" phases=1 conn=delta model=3 kv=0.22 kw = 0.0 pf=0.92 status=variable vmaxpu=1.5 vminpu=0.93 daily="RES_2_SA"
 
New "Load.BT_854_M1" bus1="UC13201.2.4" phases=1 conn=delta model=2 kv=0.22 kw = 524.6194670819074 pf=0.92 status=variable vmaxpu=1.5 vminpu=0.93 daily="RES_2_SA" 
New "Load.BT_854_M2" bus1="UC13201.2.4" phases=1 conn=delta model=3 kv=0.22 kw = 524.6194670819074 pf=0.92 status=variable vmaxpu=1.5 vminpu=0.93 daily="RES_2_SA"
 
New "Load.BT_854_M1" bus1="UC13201.3.4" phases=1 conn=delta model=2 kv=0.22 kw = 823.4533407361583 pf=0.92 status=variable vmaxpu=1.5 vminpu=0.93 daily="RES_2_SA" 
New "Load.BT_854_M2" bus1="UC13201.3.4" phases=1 conn=delta model=3 kv=0.22 kw = 823.4533407361583 pf=0.92 status=variable vmaxpu=1.5 vminpu=0.93 daily="RES_2_SA"
 
New "Load.BT_3034_M1" bus1="UC14783.1.2.3.4" phases=3 conn=delta model=2 kv=0.38 kw = 432.95410348456994 pf=0.92 status=variable vmaxpu=1.5 vminpu=0.93 daily="RES_11_SA" 
...